/*--------------------------------*- C++ -*----------------------------------*\
  =========                 |
  \\      /  F ield         | OpenFOAM: The Open Source CFD Toolbox
   \\    /   O peration     | Website:  https://openfoam.org
    \\  /    A nd           | Version:  6
     \\/     M anipulation  |
\*---------------------------------------------------------------------------*/
FoamFile
{
    version     2.0;
    format      ascii;
    class       polyBoundaryMesh;
    location    "constant/polyMesh";
    object      boundary;
}
// * * * * * * * * * * * * * * * * * * * * * * * * * * * * * * * * * * * * * //

6
(
    ground
    {
        type            symmetryPlane;
        inGroups        1(symmetryPlane);
        nFaces          8192;
        startFace       1552384;
    }
    atmosphere
    {
        type            symmetryPlane;
        inGroups        1(symmetryPlane);
        nFaces          8192;
        startFace       1560576;
    }
    front
    {
        type            symmetryPlane;
        inGroups        1(symmetryPlane);
        nFaces          8192;
        startFace       1568768;
    }
    back
    {
        type            symmetryPlane;
        inGroups        1(symmetryPlane);
        nFaces          8192;
        startFace       1576960;
    }
    outlet
    {
        type            patch;
        nFaces          4096;
        startFace       1585152;
    }
    inlet
    {
        type            patch;
        nFaces          4096;
        startFace       1589248;
    }
)

// ************************************************************************* //
