/*--------------------------------*- C++ -*----------------------------------*\
| =========                 |                                                 |
| \\      /  F ield         | OpenFOAM: The Open Source CFD Toolbox           |
|  \\    /   O peration     | Version:  3.0.x                                 |
|   \\  /    A nd           | Web:      www.OpenFOAM.org                      |
|    \\/     M anipulation  |                                                 |
\*---------------------------------------------------------------------------*/
FoamFile
{
    version     2.0;
    format      ascii;
    class       dictionary;
    object      blockMeshDict;
}
// * * * * * * * * * * * * * * * * * * * * * * * * * * * * * * * * * * * * * //

#include "../meshSetup";

convertToMeters $Scale;

vertices
(
    ($xMin  $yMin  $zMin) //0
    ($xMax  $yMin  $zMin) //1
    ($xMax  $yMax  $zMin) //2
    ($xMin  $yMax  $zMin) //3
    ($xMin  $yMin  $zMax) //4
    ($xMax  $yMin  $zMax) //5
    ($xMax  $yMax  $zMax) //6
    ($xMin  $yMax  $zMax) //7
);

blocks
(
    hex (0 1 2 3 4 5 6 7) ($Nx $Ny $Nz) simpleGrading (1 1 $zStrch)
);

edges
(
);

boundary
(
    ground
    {
        type            symmetryPlane;
        faces           
        (
          (1 5 4 0)
        );
    }
    atmosphere
    {
        type            symmetryPlane;
        faces           
        (
          (3 7 6 2)
        );
    }
    
    front
    {
        type            symmetryPlane;
        //neighbourPatch  back;
        faces           
        (
		    (0 3 2 1)
        );
    }
    back
    {
        type            symmetryPlane;
        //neighbourPatch  front;
        faces           
        (
	        (4 5 6 7)	       
        );
    }
    
    outlet
    {
        type            patch; 
        faces           
        (
		    (2 6 5 1)
		);
    }
    inlet
    {
        type            patch; 
        faces           
        (
	        (0 4 7 3)
	    );
    }
    
 );

mergePatchPairs
(
);

// ************************************************************************* //
