/*--------------------------------*- C++ -*----------------------------------*\
| =========                 |                                                 |
| \\      /  F ield         | OpenFOAM: The Open Source CFD Toolbox           |
|  \\    /   O peration     | Version:  3.0.x                                 |
|   \\  /    A nd           | Web:      www.OpenFOAM.org                      |
|    \\/     M anipulation  |                                                 |
\*---------------------------------------------------------------------------*/
FoamFile
{
    version     2.0;
    format      ascii;
    class       dictionary;
    location    "system";
    object      fvSolution;
}
// * * * * * * * * * * * * * * * * * * * * * * * * * * * * * * * * * * * * * //

solvers
{

  pcorr
    {
      solver           GAMG;
      tolerance        0.02;
      relTol           0;
      smoother         GaussSeidel;
      nPreSweeps       0;
      nPostSweeps      2;
      cacheAgglomeration true;
      agglomerator     faceAreaPair;
      nCellsInCoarsestLevel 10;
      mergeLevels      1;
    }
  
  pcorrFinal
    {
      $pcorr;
    }
  
  
    p
    {
        solver          GAMG;
        tolerance       0;
        relTol          0.1;
        smoother        GaussSeidel;
        nPreSweeps      0;
        nPostSweeps     2;
        cacheAgglomeration true;
        nCellsInCoarsestLevel 10;
        agglomerator    faceAreaPair;
        mergeLevels     1;
    }

    pFinal
    {
        $p;
        smoother        DICGaussSeidel;
        tolerance       1e-06;
        relTol          0;
    }
   
    p_rgh
    {
        solver          GAMG;
        tolerance       0;
        relTol          0.1;
        smoother        GaussSeidel;
        nPreSweeps      0;
        nPostSweeps     2;
        cacheAgglomeration true;
        nCellsInCoarsestLevel 10;
        agglomerator    faceAreaPair;
        mergeLevels     1;
    }

    p_rghFinal
    {
        $p;
        smoother        DICGaussSeidel;
        tolerance       1e-06;
        relTol          0;
    }

   //"(U|T|k|epsilon|R|nuTilda)"
    "(U|k|nuTilda|T)"
    {
       // solver          PBiCG;
       // preconditioner  DILU;
	    solver          GAMG;
        smoother        symGaussSeidel;
        tolerance       1e-05;
        relTol          0.1;
    }


    // "(U|T|k|epsilon|R|nuTilda)Final"
    "(U|k|nuTilda|T)Final"
    {
        $U;
        tolerance       1e-05;
        relTol          0;
    }
}

PIMPLE
{
    //momentumPredictor no;
    nOuterCorrectors 1;
    nCorrectors     2;
    nNonOrthogonalCorrectors 0;
    pRefPoint        (0 0 0); //(0 2 1);
    //pRefCell        1001;
    pRefValue       0;
}

/*

relaxationFactors
{
    equations
    {
        "(U|T|k|epsilon|R)" 1;
        "(U|T|k|epsilon|R)Final" 1;
    }
}

*/

// ************************************************************************* //
