/*--------------------------------*- C++ -*----------------------------------*\
  =========                 |
  \\      /  F ield         | OpenFOAM: The Open Source CFD Toolbox
   \\    /   O peration     | Website:  https://openfoam.org
    \\  /    A nd           | Version:  6
     \\/     M anipulation  |
\*---------------------------------------------------------------------------*/
FoamFile
{
    version     2.0;
    format      ascii;
    class       dictionary;
    location    "constant";
    object      nnProperties;
}
// * * * * * * * * * * * * * * * * * * * * * * * * * * * * * * * * * * * * * //

MNum    4;
device  "cpu"; // "cpu" or "cuda"
torchModelPath "/home/hmarefat/scratch/torchFOAM/JupyterLab/traced_model_M4_104.pt";

means
{
    Ux    1.000068438923088365e+01;
    Uy    1.478185258924575110e-04;
    Uz    -7.118290680807097212e-05;
    G1    1.215175288621406485e-03;
    G2    -1.276728884450357765e-03;
    G3    -6.216494439516800485e-04;
    G4    -4.926357143488071600e-04;
    G5    1.744715303670655226e-03;
    G6    -6.087007096564835303e-04;
    S1    1.215175288621406485e-03;
    S2    -8.846818115702280222e-04;
    S3    4.408155034885949462e-04;
    S4    1.744715303670655226e-03;
    S5    -7.917572440363186345e-04;
    S6    -1.429717799647362703e-03;
    UUp1  5.758962362939688134e-02;
    UUp2  1.156167149539076940e-04;
    UUp3  -7.665573363450608113e-05;
    UUp4  2.747557686068897650e-02;
    UUp5  9.359479938740370949e-05;
    UUp6  2.769080545249490502e-02;
    Cs    3.817081518804793343e-03;
}

stds
{
    Ux    4.983129779963413331e-01;
    Uy    1.973895713598023960e-01;
    Uz    1.963162774131047283e-01;
    G1    1.021232395593851816e+00;
    G2    8.919652721536754925e-01;
    G3    8.607521090742131786e-01;
    G4    2.086238089466534884e+00;
    G5    9.971837528161243691e-01;
    G6    1.195907915400519439e+00;
    S1    1.021232395593851816e+00;
    S2    1.026408811391349651e+00;
    S3    1.031591726010887111e+00;
    S4    9.971837528161243691e-01;
    S5    7.550221843999218585e-01;
    S6    9.864889315203662079e-01;
    UUp1  4.891133694626074724e-01;
    UUp2  1.116760634708804240e-01;
    UUp3  1.124232360529198449e-01;
    UUp4  1.909249809269783771e-01;
    UUp5  1.828403069826313107e-02;
    UUp6  1.934300362164863563e-01;
    Cs    1.047741831599482559e-01;
}