/*--------------------------------*- C++ -*----------------------------------*\
  =========                 |
  \\      /  F ield         | OpenFOAM: The Open Source CFD Toolbox
   \\    /   O peration     | Website:  https://openfoam.org
    \\  /    A nd           | Version:  6
     \\/     M anipulation  |
\*---------------------------------------------------------------------------*/
FoamFile
{
    version     2.0;
    format      ascii;
    class       dictionary;
    location    "constant";
    object      nnProperties;
}
// * * * * * * * * * * * * * * * * * * * * * * * * * * * * * * * * * * * * * //

MNum    1;
device  "cuda"; // "cpu" or "cuda"
torchModelPath "/home/hmarefat/scratch/torchFOAM/JupyterLab/traced_model_M1_103.pt";

means
{
    Ux      1.000032415473771419e+00;
    Uy      1.544171594630381201e-05;
    Uz      -2.560523192857740358e-05;
    G1      -3.247401102078045364e-04;
    G2      7.804831747328077327e-06;
    G3      9.082373092743025638e-06;
    G4      -2.826031580718503457e-04;
    G5      2.956847138544458752e-04;
    G6      1.442436366413626285e-04;
    S1      -3.247401102078045364e-04;
    S2      -1.373993161708686375e-04;
    S3      -1.412843425373607918e-04;
    S4      2.956847138544458752e-04;
    S5      -2.418319111180643510e-06;
    S6      9.525723602570234586e-05;
    UUp1    4.281951411933750009e-04;
    UUp2    7.896384510998569087e-06;
    UUp3    -7.242505366152104133e-06;
    UUp4    1.604121755457488035e-04;
    UUp5    5.625850094291776822e-06;
    UUp6    1.612462199947330230e-04;
    Cs      3.666401753462222857e-03;
}

stds
{
    Ux      5.343667886455978622e-02;
    Uy      1.515229159046805642e-02;
    Uz      1.602341504878677242e-02;
    G1      8.615968193033807232e-02;
    G2      5.548788365730993738e-02;
    G3      4.599441015626788004e-02;
    G4      1.860230653121577593e-01;
    G5      6.097452906448685289e-02;
    G6      6.929750977780890775e-02;
    S1      8.615968193033807232e-02;
    S2      8.619717830466355757e-02;
    S3      8.868153453850928514e-02;
    S4      6.097452906448685289e-02;
    S5      4.297573553118718553e-02;
    S6      5.630207025453635994e-02;
    UUp1    3.190411418073245062e-03;
    UUp2    7.276168680109836679e-04;
    UUp3    7.306797185912870893e-04;
    UUp4    1.044051203870081457e-03;
    UUp5    1.243064528220244776e-04;
    UUp6    1.072069298451816576e-03;
    Cs      7.838572223963288788e-02;
}