/*--------------------------------*- C++ -*----------------------------------*\
| =========                 |                                                 |
| \\      /  F ield         | OpenFOAM: The Open Source CFD Toolbox           |
|  \\    /   O peration     | Version:  3.0.x                                 |
|   \\  /    A nd           | Web:      www.OpenFOAM.org                      |
|    \\/     M anipulation  |                                                 |
\*---------------------------------------------------------------------------*/
FoamFile
{
    version     2.0;
    format      ascii;
    class       dictionary;
    location    "constant";
    object      transportProperties;
}
// * * * * * * * * * * * * * * * * * * * * * * * * * * * * * * * * * * * * * //

Ubar  Ubar          [0 1 -1 0 0 0 0] (2 0 0);

transportModel  Newtonian;

nu nu             [0 2 -1 0 0 0 0] 1.0e-3; //0.000270270; //5e-05; 

// Thermal expansion coefficient
beta            [0 0 0 -1 0 0 0] 0;

// Reference temperature
TRef  TRef           [0 0 0 1 0 0 0] 0;

// Laminar Prandtl number
Pr              [0 0 0 0 0 0 0] 1.0;

// Turbulent Prandtl number
Prt             [0 0 0 0 0 0 0] 0.7;

RotationVector RotationVector [0 0 -1 0 0 0 0] (0 0 0);

GwindVector GwindVector [0 1 -2 0 0 0 0](-0.0 -0.0e-0 0);

// ************************************************************************* //
