/*--------------------------------*- C++ -*----------------------------------*\
  =========                 |
  \\      /  F ield         | OpenFOAM: The Open Source CFD Toolbox
   \\    /   O peration     | Website:  https://openfoam.org
    \\  /    A nd           | Version:  6
     \\/     M anipulation  |
\*---------------------------------------------------------------------------*/
FoamFile
{
    version     2.0;
    format      ascii;
    class       dictionary;
    location    "constant";
    object      nnProperties;
}
// * * * * * * * * * * * * * * * * * * * * * * * * * * * * * * * * * * * * * //

MNum    3;
device  "cuda"; // "cpu" or "cuda"
torchModelPath "/home/hmarefat/scratch/torchFOAM/JupyterLab/traced_model_M3_503.pt";

means
{
    Ux      5.000355919288955953e+00;
    Uy      3.852533402293919057e-07;
    Uz      3.715337127956672391e-05;
    G1      -2.973926489022900841e-04;
    G2      1.747098747490227527e-04;
    G3      -1.913232399051046772e-04;
    G4      3.679834559155705453e-04;
    G5      -7.287852625365068785e-07;
    G6      5.103926858159668709e-04;
    S1      -2.973926489022900841e-04;
    S2      2.713479249222945861e-04;
    S3      2.107581516299020924e-04;
    S4      -7.287852625365068785e-07;
    S5      -7.381935095665609012e-05;
    S6      -4.047161377416525082e-04;
    UUp1    1.357586338652448307e-02;
    UUp2    -6.629289946030943756e-05;
    UUp3    3.852108477520912300e-05;
    UUp4    6.472940795278821907e-03;
    UUp5    -2.777059770469646337e-05;
    UUp6    6.372556139833870752e-03;
    Cs      6.423773898369603127e-04;
}

stds
{
    Ux      2.549993333385247585e-01;
    Uy      9.301013025016410807e-02;
    Uz      9.252115633718802079e-02;
    G1      4.943410079457595252e-01;
    G2      3.812431387381056136e-01;
    G3      3.700113017713930197e-01;
    G4      1.035993789436432388e+00;
    G5      4.598312548062727378e-01;
    G6      5.428852039976260757e-01;
    S1      4.943410079457595252e-01;
    S2      5.051923337350121557e-01;
    S3      5.136761934981062261e-01;
    S4      4.598312548062727378e-01;
    S5      3.403008224275915206e-01;
    S6      4.567203928846979566e-01;
    UUp1    1.162012684835089099e-01;
    UUp2    2.695313023685542292e-02;
    UUp3    2.646440546607680550e-02;
    UUp4    4.572851088593811453e-02;
    UUp5    4.184657229618984897e-03;
    UUp6    4.462723992546924201e-02;
    Cs      8.316997127526029598e-02;
}